Version 4
SHEET 1 880 680
WIRE 16 160 -144 160
WIRE 368 160 96 160
WIRE 608 160 448 160
WIRE -144 320 -144 160
WIRE 608 336 608 160
WIRE 608 528 608 400
WIRE -144 544 -144 400
FLAG -144 544 0
FLAG 608 528 0
SYMBOL ind 112 144 R90
WINDOW 0 5 56 VBottom 2
WINDOW 3 32 56 VTop 2
SYMATTR InstName L1
SYMATTR Value 10m
SYMBOL res 464 144 R90
WINDOW 0 0 56 VBottom 2
WINDOW 3 32 56 VTop 2
SYMATTR InstName R1
SYMATTR Value 500
SYMBOL cap 592 336 R0
SYMATTR InstName C1
SYMATTR Value 1n
SYMBOL voltage -144 304 R0
WINDOW 123 0 0 Left 0
WINDOW 39 0 0 Left 0
SYMATTR InstName V1
SYMATTR Value PULSE(0 1 10u 1f 1f 200u)
TEXT -136 576 Left 2 !.tran 0 400u 0 10n
