Version 4
SHEET 1 1076 680
WIRE 448 112 288 112
WIRE 720 112 528 112
WIRE 288 224 288 112
WIRE 720 224 720 112
WIRE 288 416 288 304
WIRE 720 432 720 288
FLAG 288 416 0
FLAG 720 432 0
SYMBOL res 544 96 R90
WINDOW 0 0 56 VBottom 2
WINDOW 3 32 56 VTop 2
SYMATTR InstName R1
SYMATTR Value 10k
SYMBOL voltage 288 208 R0
WINDOW 123 0 0 Left 0
WINDOW 39 0 0 Left 0
SYMATTR InstName V1
SYMATTR Value PULSE(0 1e+6 0 0.01f 0.01f 1u)
SYMBOL cap 704 224 R0
SYMATTR InstName C1
SYMATTR Value 10n
TEXT 296 448 Left 2 !.tran 0 400u 0 10n
